Circuit: * H:\Documents\GitHub\Mobile-Antenna-Switch\sim\peak detector\detector.asc

Direct Newton iteration for .op point succeeded.

Date: Sat Jan 08 21:14:58 2022
Total elapsed time: 0.296 seconds.

tnom = 27
temp = 27
method = modified trap
totiter = 50420
traniter = 50410
tranpoints = 14126
accept = 9906
rejected = 4220
matrix size = 13
fillins = 0
solver = Normal
Matrix Compiler1: 630 bytes object code size  0.1/0.1/[0.1]
Matrix Compiler2: off  [0.1]/0.1/0.1

