Circuit: * C:\Users\W3AXL\Documents\GitHub\Mobile-Antenna-Switch\sim\peak detector\detector.asc

Direct Newton iteration for .op point succeeded.

Date: Sat Jan 01 19:44:55 2022
Total elapsed time: 0.300 seconds.

tnom = 27
temp = 27
method = modified trap
totiter = 50369
traniter = 50359
tranpoints = 14105
accept = 9896
rejected = 4209
matrix size = 13
fillins = 0
solver = Normal
Matrix Compiler1: 630 bytes object code size  0.3/0.2/[0.1]
Matrix Compiler2: 939 bytes object code size  0.1/0.2/[0.1]

